================================================================================
DROPPED FEATURES LOG
================================================================================
Date: 2025-12-06T17:16:01.600174
Input file: data/features/quarterly_data_with_targets.csv
Output file: data/features/quarterly_data_with_targets_clean.csv
Original columns: 226
Remaining columns: 147
Dropped: 79

================================================================================
FEATURES DROPPED:
================================================================================

1. Revenue
2. EPS
3. Debt_to_Equity
4. net_margin
5. gross_margin
6. operating_margin
7. roa
8. roe
9. q_return
10. next_q_return
11. Revenue_growth_1q
12. Net_Income_growth_1q
13. Gross_Profit_growth_1q
14. Operating_Income_growth_1q
15. eps_growth_1q
16. Net_Income
17. Gross_Profit
18. Operating_Income
19. EBITDA
20. Total_Debt
21. Total_Assets
22. Total_Liabilities
23. Total_Equity
24. Current_Assets
25. Current_Liabilities
26. Long_Term_Debt
27. Short_Term_Debt
28. Cash
29. Current_Ratio
30. Stock_Price
31. q_price
32. q_volume
33. q_high
34. q_low
35. q_open
36. q_price_range_pct
37. Open
38. High
39. Low
40. Close
41. Adj_Close
42. Volume
43. pe_ratio
44. debt_to_assets
45. debt_to_ebitda
46. cash_ratio
47. revenue_acceleration
48. net_margin_trend
49. return_momentum
50. revenue_declining
51. high_leverage
52. liquidity_risk
53. composite_stress_score
54. leverage_x_vix
55. margin_x_market
56. revenue_decline_x_vix
57. excess_return
58. return_vs_sector
59. revenue_growth_vs_sector
60. debt_x_rates
61. net_margin_zscore
62. roa_zscore
63. roe_zscore
64. debt_to_assets_zscore
65. log_Revenue
66. log_Total_Assets
67. log_Total_Debt
68. log_Cash
69. crisis_flag
70. Quarter_End_Date
71. Original_Quarter_End
72. Company_Name
73. profit_margin_calculated
74. return_calculated
75. Revenue_growth_4q
76. Net_Income_growth_4q
77. Gross_Profit_growth_4q
78. Operating_Income_growth_4q
79. eps_growth_4q

================================================================================
TARGET COLUMNS PRESERVED:
================================================================================

[KEEP] target_revenue
[KEEP] target_eps
[KEEP] target_debt_equity
[KEEP] target_profit_margin
[KEEP] target_stock_return

================================================================================
SAFE PREDICTIVE FEATURES KEPT:
================================================================================

[KEEP] Debt_to_Equity_lag_1q
[KEEP] Debt_to_Equity_lag_2q
[KEEP] Debt_to_Equity_lag_4q
[KEEP] Total_Debt_lag_1q
[KEEP] Total_Debt_lag_2q
[KEEP] Total_Debt_lag_4q
[KEEP] Total_Assets_lag_1q
[KEEP] Total_Assets_lag_2q
[KEEP] Total_Assets_lag_4q
[KEEP] debt_to_assets_rolling4q_mean
[KEEP] debt_to_assets_rolling4q_std
[KEEP] q_return_lag_1q
[KEEP] q_return_lag_2q
[KEEP] q_return_lag_4q
[KEEP] q_return_rolling4q_mean
[KEEP] q_return_rolling4q_std
[KEEP] sp500_q_return_lag_1q
[KEEP] sp500_q_return_lag_2q
[KEEP] sector_avg_return
[KEEP] Revenue_lag_1q
[KEEP] Revenue_lag_2q
[KEEP] Revenue_lag_4q
[KEEP] Net_Income_lag_1q
[KEEP] Net_Income_lag_2q
[KEEP] Current_Ratio_lag_1q
[KEEP] Current_Ratio_lag_2q
[KEEP] Revenue_rolling4q_mean
[KEEP] Revenue_rolling4q_std
[KEEP] Net_Income_rolling4q_mean
[KEEP] net_margin_rolling4q_mean
[KEEP] roa_rolling4q_mean
[KEEP] roe_rolling4q_mean

================================================================================
SAFE FEATURES MISSING FROM DATA:
================================================================================

None - all expected safe features present!

================================================================================
FEATURES NOT FOUND (already absent):
================================================================================

- net_margin_q
- stock_q_return
- Quarter_End_Date_fred
- EPS_calculated
